/*--------------------------------*- C++ -*----------------------------------*\
  =========                 |
  \\      /  F ield         | OpenFOAM: The Open Source CFD Toolbox
   \\    /   O peration     | Website:  https://openfoam.org
    \\  /    A nd           | Version:  dev
     \\/     M anipulation  |
\*---------------------------------------------------------------------------*/
FoamFile
{
    format      ascii;
    class       dictionary;
    location    "system";
    object      decomposeParDict;
}
// * * * * * * * * * * * * * * * * * * * * * * * * * * * * * * * * * * * * * //

numberOfSubdomains 8;

decomposer      scotch;
// weightField particleRho;

/**/
distributor     zoltan;
libs            ("libzoltanDecomp.so");

// distributor     parMetis;
// libs            ("libparMetisDecomp.so");

hierarchicalCoeffs
{
    n   (6 4 8);
    order xyz;
}

zoltanCoeffs
{
    lb_method   rcb; // hypergraph; // rcb;
    lb_approach repartition;
}

// ************************************************************************* //
