/*--------------------------------*- C++ -*----------------------------------*\
| =========                 |                                                 |
| \\      /  F ield         | OpenFOAM: The Open Source CFD Toolbox           |
|  \\    /   O peration     | Version:  v1806                                 |
|   \\  /    A nd           | Web:      www.OpenFOAM.com                      |
|    \\/     M anipulation  |                                                 |
\*---------------------------------------------------------------------------*/
FoamFile
{
    version     2.0;
    format      ascii;
    class       dictionary;
    location    "system";
    object      fvSchemes;
}
// * * * * * * * * * * * * * * * * * * * * * * * * * * * * * * * * * * * * * //

ddtSchemes
{
    default         Euler; // CrankNicolson 0.9;
}

gradSchemes
{
    default 	  		Gauss linear;
	limitedGrad     	cellLimited Gauss linear 1;
}

divSchemes
{
    default         Gauss linear;
    div(rhoPhi,U)   Gauss linear; // linearUpwindV grad(U);
	div(phi,alpha)  Gauss PLIC interfaceCompression vanLeer 1;
    div(phi,k)      Gauss linearUpwind limitedGrad;
    div(phi,omega)  Gauss linearUpwind limitedGrad;
}

laplacianSchemes
{
    default         Gauss linear corrected;
}

interpolationSchemes
{
    default      	linear;
}

snGradSchemes
{
    default         corrected;
}

wallDist
{
    method meshWave;
}


// ************************************************************************* //
